Version 4
SHEET 1 880 748
WIRE 608 -64 -64 -64
WIRE -64 0 -64 -64
WIRE 80 32 48 32
WIRE -1024 80 -1024 48
WIRE 192 96 80 96
WIRE 464 96 304 96
WIRE 608 96 608 -64
WIRE 608 96 560 96
WIRE 192 128 192 96
WIRE 432 128 192 128
WIRE 512 128 432 128
WIRE 432 144 432 128
WIRE -64 160 -64 64
WIRE -64 160 -288 160
WIRE 80 160 -64 160
WIRE 192 160 192 128
WIRE 304 160 192 160
WIRE 80 224 64 224
WIRE 352 224 304 224
WIRE 432 240 432 208
WIRE -368 272 -368 208
WIRE 352 368 352 224
WIRE 64 464 64 224
WIRE 128 496 96 496
WIRE 128 512 128 496
WIRE 80 560 80 528
WIRE 224 560 80 560
WIRE 224 592 224 560
WIRE 48 608 48 528
WIRE 48 608 -80 608
WIRE -80 656 -80 608
WIRE 224 656 224 592
WIRE 224 656 208 656
WIRE 240 656 224 656
WIRE 0 688 -32 688
WIRE 320 688 320 656
FLAG -1024 160 0
FLAG 48 32 0
FLAG -1024 48 +
FLAG 304 32 +
FLAG 432 240 0
FLAG -368 272 0
FLAG 352 432 0
FLAG 128 512 0
FLAG 32 496 +
FLAG 128 656 +
FLAG 0 688 +
FLAG -368 -32 +
FLAG -128 688 0
FLAG -80 608 Vth
IOPIN -80 608 In
FLAG 224 592 Vin
IOPIN 224 592 In
FLAG 320 688 0
DATAFLAG 192 560 ""
DATAFLAG -48 608 ""
SYMBOL SBORKA\\TIMER\\555 192 128 R0
SYMATTR InstName U1
SYMBOL voltage -1024 64 R0
WINDOW 123 0 0 Left 2
WINDOW 39 0 0 Left 2
SYMATTR InstName V1
SYMATTR Value 5
SYMBOL cap 416 144 R0
SYMATTR InstName C1
SYMATTR Value 300n
SYMBOL res -384 -48 R0
SYMATTR InstName R1
SYMATTR Value 1k
SYMBOL EXTRA\\Misc\\pot 512 96 R270
WINDOW 0 26 -68 VRight 2
WINDOW 3 56 -65 VRight 2
WINDOW 123 28 -12 VRight 2
SYMATTR InstName U2
SYMATTR Value2 T=0.75
SYMBOL cap 336 368 R0
SYMATTR InstName C2
SYMATTR Value 10n
SYMBOL LED -384 48 R0
SYMATTR InstName D2
SYMBOL EXTRA\\Misc\\pot -80 688 R90
SYMATTR InstName U4
SYMATTR Value2 T=0.5
SYMBOL schottky -48 64 R180
WINDOW 0 24 64 Left 2
WINDOW 3 24 0 Left 2
SYMATTR InstName D1
SYMATTR Value BAT46WJ
SYMBOL res 224 640 R90
WINDOW 0 0 56 VBottom 2
WINDOW 3 32 56 VTop 2
SYMATTR InstName R2
SYMATTR Value 100k
SYMBOL Comparators\\LT1720 0 496 R270
SYMATTR InstName U5
SYMBOL EXTRA\\IRF\\NMOSFET\\nmodel.spi -336 160 M0
SYMATTR InstName U3
SYMBOL res 336 640 R90
WINDOW 0 0 56 VBottom 2
WINDOW 3 32 56 VTop 2
SYMATTR InstName R3
SYMATTR Value 10k
TEXT -344 -464 Left 2 !.tran 40ms
